ID CAPS generated Problem FOR TACS
SOL 1
CEND

LINE=10000
DISP (PRINT,PUNCH) = ALL
STRE (PRINT,PUNCH) = ALL
STRA (PRINT,PUNCH) = ALL
SUBCASE 1
	LABEL = Default
	ANALYSIS = STATICS
	SPC = 2
	LOAD = 2

BEGIN BULK
$---1---|---2---|---3---|---4---|---5---|---6---|---7---|---8---|---9---|---10--|
PARAM, POST, -1

LOAD*                 2              1.              1.               1 
SPCADD*               2               1 
FORCE*                1              77               0            100. *0      
*0                   0.              1.              0. 
FORCE*                1              78               0            100. *0      
*0                   0.              1.              0. 
FORCE*                1              79               0            100. *0      
*0                   0.              1.              0. 
FORCE*                1              80               0            100. *0      
*0                   0.              1.              0. 
FORCE*                1              81               0            100. *0      
*0                   0.              1.              0. 
FORCE*                1              82               0            100. *0      
*0                   0.              1.              0. 
FORCE*                1              83               0            100. *0      
*0                   0.              1.              0. 
FORCE*                1              84               0            100. *0      
*0                   0.              1.              0. 
FORCE*                1              85               0            100. *0      
*0                   0.              1.              0. 
FORCE*                1              86               0            100. *0      
*0                   0.              1.              0. 
FORCE*                1              87               0            100. *0      
*0                   0.              1.              0. 
FORCE*                1              88               0            100. *0      
*0                   0.              1.              0. 
FORCE*                1              89               0            100. *0      
*0                   0.              1.              0. 
FORCE*                1              90               0            100. *0      
*0                   0.              1.              0. 
FORCE*                1              91               0            100. *0      
*0                   0.              1.              0. 
FORCE*                1              92               0            100. *0      
*0                   0.              1.              0. 
FORCE*                1              93               0            100. *0      
*0                   0.              1.              0. 
FORCE*                1              94               0            100. *0      
*0                   0.              1.              0. 
FORCE*                1              95               0            100. *0      
*0                   0.              1.              0. 
FORCE*                1              96               0            100. *0      
*0                   0.              1.              0. 
$ ... 608 like lines cut
SPC1*                 1          123456             158 
SPC1*                 1          123456             177 
SPC1*                 1          123456             178 
SPC1*                 1          123456             179 
SPC1*                 1          123456             180 
SPC1*                 1          123456             181 
SPC1*                 1          123456             182 
SPC1*                 1          123456             183 
SPC1*                 1          123456             184 
SPC1*                 1          123456             185 
SPC1*                 1          123456             186 
SPC1*                 1          123456             368 
SPC1*                 1          123456             378 
SPC1*                 1          123456             379 
SPC1*                 1          123456             380 
SPC1*                 1          123456             381 
SPC1*                 1          123456             382 
SPC1*                 1          123456             383 
SPC1*                 1          123456             384 
SPC1*                 1          123456             385 
$ ... 90 like lines cut
MAT1*                 1    72000000000.                            0.33 *0      
*0                2800.              0.              0.              0. *1      
*1           200000000.              0.              0. 
PSHELL*               2               1           1.E-2               1 *0      
*0                   1.               1 0.8333333333333 
PSHELL*               1               1           2.E-2               1 *0      
*0                   1.               1 0.8333333333333 
PSHELL*               3               1           5.E-2               1 *0      
*0                   1.               1 0.8333333333333 
DESVAR*               1            area              0.              0. *0      
*0                   0.              0. 
DESVAR*               2          aspect              0.              0. *0      
*0                   0.              0. 
DESVAR*               3          ctwist              0.              0. *0      
*0                   0.              0. 
DESVAR*               4        dihedral              0.              0. *0      
*0                   0.              0. 
DESVAR*               5         lesweep              0.              0. *0      
*0                   0.              0. 
DESVAR*               6           taper              0.              0. *0      
*0                   0.              0. 
DESVAR*               7          thick1           1.E-2           5.E-3 *0      
*0               1.5E-2           1.E-3 
DESVAR*               8          thick2           2.E-2           1.E-2 *0      
*0                3.E-2           2.E-3 
DESVAR*               9          thick3           3.E-2          1.5E-2 *0      
*0               4.5E-2           3.E-3 
DVPREL1*            100          PSHELL               1               T *0      
*0                                                   0.                 *1      
*1                    7              1. 
DVPREL1*            200          PSHELL               3               T *0      
*0                                                   0.                 *1      
*1                    8              1. 
DVPREL1*            300          PSHELL               2               T *0      
*0                                                   0.                 *1      
*1                    9              1. 

INCLUDE 'nastran_CAPS.bdf'

ENDDATA
