ID CAPS generated Problem FOR TACS
SOL 1
CEND

LINE=10000
DISP (PRINT,PUNCH) = ALL
STRE (PRINT,PUNCH) = ALL
STRA (PRINT,PUNCH) = ALL
SUBCASE 1
	LABEL = Default
	ANALYSIS = STATICS
	SPC = 2
	LOAD = 2

BEGIN BULK
$---1---|---2---|---3---|---4---|---5---|---6---|---7---|---8---|---9---|---10--|
PARAM, POST, -1

LOAD*                 2              1.              1.               1 
SPCADD*               2               1 
FORCE*                1              65               0           1000. *0      
*0                   0.              0.             -1. 
FORCE*                1              66               0           1000. *0      
*0                   0.              0.             -1. 
FORCE*                1              67               0           1000. *0      
*0                   0.              0.             -1. 
FORCE*                1              68               0           1000. *0      
*0                   0.              0.             -1. 
FORCE*                1              69               0           1000. *0      
*0                   0.              0.             -1. 
FORCE*                1              70               0           1000. *0      
*0                   0.              0.             -1. 
FORCE*                1              71               0           1000. *0      
*0                   0.              0.             -1. 
FORCE*                1              72               0           1000. *0      
*0                   0.              0.             -1. 
FORCE*                1              73               0           1000. *0      
*0                   0.              0.             -1. 
FORCE*                1              74               0           1000. *0      
*0                   0.              0.             -1. 
FORCE*                1              75               0           1000. *0      
*0                   0.              0.             -1. 
FORCE*                1              76               0           1000. *0      
*0                   0.              0.             -1. 
FORCE*                1              77               0           1000. *0      
*0                   0.              0.             -1. 
FORCE*                1              78               0           1000. *0      
*0                   0.              0.             -1. 
FORCE*                1              79               0           1000. *0      
*0                   0.              0.             -1. 
FORCE*                1              80               0           1000. *0      
*0                   0.              0.             -1. 
FORCE*                1              81               0           1000. *0      
*0                   0.              0.             -1. 
FORCE*                1              82               0           1000. *0      
*0                   0.              0.             -1. 
FORCE*                1              83               0           1000. *0      
*0                   0.              0.             -1. 
FORCE*                1              84               0           1000. *0      
*0                   0.              0.             -1. 
$ ... 410 like lines cut
SPC1*                 1             123               1 
SPC1*                 1             123               2 
SPC1*                 1             123               3 
SPC1*                 1             123               4 
SPC1*                 1             123               5 
SPC1*                 1             123               6 
SPC1*                 1             123               7 
SPC1*                 1             123               8 
SPC1*                 1             123               9 
SPC1*                 1             123              10 
SPC1*                 1             123              11 
SPC1*                 1             123              12 
SPC1*                 1             123              13 
SPC1*                 1             123              14 
SPC1*                 1             123              15 
SPC1*                 1             123              16 
SPC1*                 1             123              17 
SPC1*                 1             123              18 
SPC1*                 1             123              19 
SPC1*                 1             123              20 
$ ... 44 like lines cut
MAT1*                 1    72000000000.                            0.33 *0      
*0                2800.              0.              0.              0. *1      
*1           200000000.              0.              0. 
PSHELL*               1               1           1.E-2               1 *0      
*0                   1.               1 0.8333333333333 
DESVAR*               1     plateLength              0.              0. *0      
*0                   0.              0. 
DESVAR*               2      plateWidth              0.              0. *0      
*0                   0.              0. 
DESVAR*               3           thick           1.E-2           5.E-3 *0      
*0               1.5E-2           1.E-3 
DVPREL1*            100          PSHELL               1               T *0      
*0                                                   0.                 *1      
*1                    3              1. 

INCLUDE 'nastran_CAPS.bdf'

ENDDATA
